src/tests/data/grids/DGS/IEEE13_NoCables.dgs
********************************************************************************
*
* DIgSILENT (R) DGS Export V1.8.4
* Copyright (C) DIgSILENT GmbH 2026. All rights reserved.
*
* DIgSILENT (C) PowerFactory V24.0.10.0
*
* Date:     08/13/2026 13:48
* Project:  IEEE13_NoCables (Study Case: Study Case)
*
********************************************************************************


$$General;FID(a:40);Descr(a:40);Val(a:255)
  1;Version;7.0


$$ElmFeeder;FID(a:40);OP(a:1);loc_name(a:80);fold_id(p);obj_id(p);iorient(i);i_scale(i);Sset(r);icolor(i);outserv(i)
  2;C;RG60_LOHL650-632;;176;0;0;0;-15572290;0
  3;C;RG60_UregA;;173;0;0;0;-15572290;0
  4;C;RG60_UregB;;174;0;0;0;-1172706;0
  5;C;RG60_UregC;;175;0;0;0;-14636533;0


$$ElmLne;FID(a:40);OP(a:1);loc_name(a:80);fold_id(p);typ_id(p);dline(r);fline(r);GPScoords:MATRIX(a);nlnum(i);inAir(i)
  6;C;LOHL632-633;29;234;0.1524;1;;1;0
  7;C;LOHL632-645;29;235;0.1524;1;;1;0
  8;C;LOHL632-671;29;233;0.1016;1;;1;0
  9;C;LOHL632-671_a;29;233;0.1016;1;;1;0
  10;C;LOHL632-671_b;29;233;0.1016;1;;1;0
  11;C;LOHL632-671_c;29;233;0.1016;1;;1;0
  12;C;LOHL632-671_d;29;233;0.1016;1;;1;0
  13;C;LOHL632-671_e;29;233;0.1016;1;;1;0
  14;C;LOHL645-646;29;235;0.0914;1;;1;0
  15;C;LOHL650-632;29;233;0.6096;1;;1;0
  16;C;LOHL671-680;29;233;0.3048;1;;1;0
  17;C;LOHL671-684;29;235;0.0914;1;;1;0
  18;C;LOHL684-611;29;236;0.0914;1;;1;0


$$ElmLod;FID(a:40);OP(a:1);loc_name(a:80);fold_id(p);typ_id(p);mode_inp(a:6);slini(r);plini(r);qlini(r);coslini(r);pf_recap(i);scale0(r);i_scale(i);outserv(i);classif(a:40);i_sym(i);plinir(r);plinis(r);plinit(r);qlinir(r);qlinis(r);qlinit(r);phtech(a)
  19;C;Distributed Load 1;29;232;DEF;0.046241;0.04;0.0232;0.865031;0;1;1;0;;1;0.0034;0.0132;0.0234;0.002;0.0076;0.0136;3PH-'YN'
  20;C;Distributed Load 2;29;232;DEF;0.046241;0.04;0.0232;0.865031;0;1;1;0;;1;0.0034;0.0132;0.0234;0.002;0.0076;0.0136;3PH-'YN'
  21;C;Distributed Load 3;29;232;DEF;0.046241;0.04;0.0232;0.865031;0;1;1;0;;1;0.0034;0.0132;0.0234;0.002;0.0076;0.0136;3PH-'YN'
  22;C;Distributed Load 4;29;232;DEF;0.046241;0.04;0.0232;0.865031;0;1;1;0;;1;0.0034;0.0132;0.0234;0.002;0.0076;0.0136;3PH-'YN'
  23;C;Distributed Load 5;29;232;DEF;0.046241;0.04;0.0232;0.865031;0;1;1;0;;1;0.0034;0.0132;0.0234;0.002;0.0076;0.0136;3PH-'YN'
  24;C;L611-YcI;29;229;DEF;0.187882;0.17;0.08;0.904818;0;1;1;0;;0;0;0;0;0;0;0;1PH PH-E
  25;C;L634-YcPQ;29;232;DEF;0.494064;0.4;0.29;0.809610;0;1;1;0;;1;0.16;0.12;0.12;0.11;0.09;0.09;3PH-'YN'
  26;C;L645-YcPQ;29;230;DEF;0.211009;0.17;0.125;0.805651;0;1;1;0;;0;0;0;0;0;0;0;1PH PH-N
  27;C;L646-DcZ;29;231;DEF;0.265186;0.23;0.132;0.867313;0;1;1;0;;0;0;0;0;0;0;0;1PH PH-PH
  28;C;L671-DcPQ;29;228;DEF;1.330272;1.155;0.66;0.868243;0;1;1;0;;1;0.385;0.385;0.385;0.22;0.22;0.22;3PH-'D'


$$ElmNet;FID(a:40);OP(a:1);loc_name(a:80);fold_id(p);frnom(r);pDiagram(p)
  29;C;Grid;;60;145


$$ElmShnt;FID(a:40);OP(a:1);loc_name(a:80);fold_id(p);systp(i);ctech(i);shtype(i);ushnm(r);mode_inp(a:6);qcapn(r);ncapx(i);ncapa(i);outserv(i);qrean(r);qtotn(r);tandc(r);fres(r);greaf0(r);grea(r);bcap(r);xrea(r);rrea(r);gparac(r);iswitch(i);imldc(a:2);usetp_mx(r);usetp_mn(r);qsetp_mx(r);qsetp_mn(r);iQorient(i);ilcph(i);chr_name(a:40);rpara(r);i_cont(i);cgnd(i)
  30;C;C611;29;0;7;2;4.16;DEF;0.1;1;1;0;0;0.1;0;0;0;0;17335.43;1.5;0;0;0;V;1.05;0.95;0;0;0;0;;0;0;0


$$ElmTerm;FID(a:40);OP(a:1);loc_name(a:80);fold_id(p);typ_id(p);systype(i);iUsage(i);uknom(r);unknom(r);iminus(i);outserv(i);GPSlat(r);GPSlon(r);vtarget(r)
  31;C;611;29;224;0;0;4.16;2.401777;0;0;0;0;1
  32;C;632;29;224;0;0;4.16;2.401777;0;0;0;0;1
  33;C;633;29;224;0;0;4.16;2.401777;0;0;0;0;1
  34;C;634;29;223;0;0;0.48;0.277128;0;0;0;0;1
  35;C;645;29;224;0;0;4.16;2.401777;0;0;0;0;1
  36;C;646;29;224;0;0;4.16;2.401777;0;0;0;0;1
  37;C;650;29;224;0;0;4.16;2.401777;0;0;0;0;1
  38;C;671;29;224;0;0;4.16;2.401777;0;0;0;0;1
  39;C;680;29;224;0;0;4.16;2.401777;0;0;0;0;1
  40;C;684;29;224;0;0;4.16;2.401777;0;0;0;0;1
  41;C;RG60;29;224;0;0;4.16;2.401777;0;0;0;0;1
  42;C;Terminal(1);29;;0;1;4.16;2.401777;0;0;0;0;1
  43;C;Terminal(2);29;;0;1;4.16;2.401777;0;0;0;0;1
  44;C;Terminal(3);29;;0;1;4.16;2.401777;0;0;0;0;1
  45;C;Terminal(4);29;;0;1;4.16;2.401777;0;0;0;0;1
  46;C;Terminal;29;;0;1;4.16;2.401777;0;0;0;0;1


$$ElmTr2;FID(a:40);OP(a:1);loc_name(a:80);fold_id(p);typ_id(p);ntnum(i);outserv(i);nntap(i);i_auto(i);ntrcn(i);usetp(r);usp_low(r);usp_up(r);t2ldc(i);cgnd_h(i);cgnd_l(i);i_eahv(i);i_ealv(i)
  47;C;UregA;29;237;1;0;0;0;0;1;0.99;1.01;0;0;0;1;1
  48;C;UregB;29;237;1;0;0;0;0;1;0.99;1.01;0;0;0;0;0
  49;C;UregC;29;237;1;0;0;0;0;1;0.99;1.01;0;0;0;0;0
  50;C;XFM-1;29;238;1;0;0;0;0;1;0.99;1.01;0;0;0;0;0


$$ElmXnet;FID(a:40);OP(a:1);loc_name(a:80);fold_id(p);snss(r);rntxn(r);z2tz1(r);snssmin(r);rntxnmin(r);z2tz1min(r);chr_name(a:40);bustp(a:2);pgini(r);qgini(r);phiini(r);usetp(r);outserv(i);Kpf(r);K(r);cmax(r);xd(r);xq(r)
  51;C;External Grid;29;2728.87;0.1;1;8000;0.1;1;;SL;0;0;0;1;0;0;0;1.1;0.2;0.2


$$IntFolder;FID(a:40);OP(a:1);loc_name(a:80);fold_id(p)
  52;C;Layers;145
  53;C;Settings;145


$$IntGrf;FID(a:40);OP(a:1);loc_name(a:80);fold_id(p);iCol(i);iVis(i);iLevel(i);rCenterX(r);rCenterY(r);sSymNam(a:80);pDataObj(p);iRot(i);rSizeX(r);rSizeY(r)
  54;C;Graphical Net Object(10);145;-16777216;1;1;153.125;89.6875;d_lin;10;180;1;1
  55;C;Graphical Net Object(11);145;-16777216;1;1;153.125;85.3125;d_lin;11;180;1;1
  56;C;Graphical Net Object(12);145;-16777216;1;1;153.125;80.9375;d_lin;12;180;1;1
  57;C;Graphical Net Object(13);145;-16777216;1;1;153.125;72.1875;d_lin;13;180;1;1
  58;C;Graphical Net Object;145;-16777216;1;1;153.125;94.0625;d_lin;9;180;1;1
  59;C;Graphical Net Object10;145;-16777216;1;1;91.875;65.625;TermStrip;40;0;1.666667;1
  60;C;Graphical Net Object11;145;-16777216;1;1;153.125;65.625;TermStrip;38;0;1.666667;1
  61;C;Graphical Net Object15;145;-16777216;1;1;153.125;17.5;TermStrip;39;0;1;1
  62;C;Graphical Net Object18;145;-16777216;1;1;140;166.25;d_tr2;47;0;1;1
  63;C;Graphical Net Object19;145;-16777216;1;1;153.125;166.25;d_atr;48;0;1;1
  64;C;Graphical Net Object2;145;-16777216;1;1;155.3125;183.75;TermStrip;37;0;2.166667;1
  65;C;Graphical Net Object20;145;-16777216;1;1;166.25;166.25;d_atr;49;0;1;1
  66;C;Graphical Net Object21;145;-16777216;1;1;231.875;105;d_tr2;50;90;1;1
  67;C;Graphical Net Object26;145;-16777216;1;1;181.5625;105;d_lin;6;90;1;1
  68;C;Graphical Net Object27;145;-16777216;1;1;124.6875;105;d_lin;7;270;1;1
  69;C;Graphical Net Object28;145;-16777216;1;1;65.625;105;d_lin;14;270;1;1
  70;C;Graphical Net Object29;145;-16777216;1;1;153.125;107.1875;d_lin;8;180;1;1
  71;C;Graphical Net Object3;145;-16777216;1;1;155.3125;153.125;TermStrip;41;0;2.166667;1
  72;C;Graphical Net Object30;145;-16777216;1;1;153.125;135.625;d_lin;15;0;1;1
  73;C;Graphical Net Object31;145;-16777216;1;1;153.125;41.5625;d_lin;16;0;1;1
  74;C;Graphical Net Object32;145;-16777216;1;1;126.875;52.5;d_lin;17;270;1;1
  75;C;Graphical Net Object33;145;-16777216;1;1;65.625;52.5;d_lin;18;270;1;1
  76;C;Graphical Net Object39;145;-16777216;1;1;153.125;196.875;d_net;51;180;1;1
  77;C;Graphical Net Object4;145;-16777216;1;1;35;118.125;TermStrip;36;0;1;1
  78;C;Graphical Net Object41;145;-16777216;1;1;39.375;43.75;d_load;24;0;1;1
  79;C;Graphical Net Object43;145;-16777216;1;1;262.5;96.25;d_load;25;0;1;1
  80;C;Graphical Net Object44;145;-16777216;1;1;96.25;96.25;d_load;26;0;1;1
  81;C;Graphical Net Object45;145;-16777216;1;1;35;96.25;d_load;27;0;1;1
  82;C;Graphical Net Object47;145;-16777216;1;1;161.875;43.75;d_load;28;0;1;1
  83;C;Graphical Net Object48;145;-16777216;1;1;153.125;96.25;PointTerm;46;90;1;1
  84;C;Graphical Net Object5;145;-16777216;1;1;91.875;118.125;TermStrip;35;0;1.333333;1
  85;C;Graphical Net Object50;145;-16777216;1;1;153.125;91.875;PointTerm;42;90;1;1
  86;C;Graphical Net Object52;145;-16777216;1;1;153.125;87.5;PointTerm;43;90;1;1
  87;C;Graphical Net Object54;145;-16777216;1;1;153.125;83.125;PointTerm;44;90;1;1
  88;C;Graphical Net Object56;145;-16777216;1;1;153.125;78.75;PointTerm;45;90;1;1
  89;C;Graphical Net Object58;145;-16777216;1;1;161.875;87.5;d_load;21;90;1;1
  90;C;Graphical Net Object59;145;-16777216;1;1;161.875;91.875;d_load;20;90;1;1
  91;C;Graphical Net Object6;145;-16777216;1;1;150.9375;118.125;TermStrip;32;0;1.5;1
  92;C;Graphical Net Object60;145;-16777216;1;1;161.875;96.25;d_load;19;90;1;1
  93;C;Graphical Net Object61;145;-16777216;1;1;161.875;83.125;d_load;22;90;1;1
  94;C;Graphical Net Object62;145;-16777216;1;1;161.875;78.75;d_load;23;90;1;1
  95;C;Graphical Net Object63;145;-16777216;1;1;30.625;48.125;d_shunt;30;0;1;1
  96;C;Graphical Net Object7;145;-16777216;1;1;203.4375;118.125;TermStrip;33;0;1.166667;1
  97;C;Graphical Net Object8;145;-16777216;1;1;258.125;118.125;TermStrip;34;0;1.333333;1
  98;C;Graphical Net Object9;145;-16777216;1;1;30.625;65.625;TermStrip;31;0;1.666667;1


$$IntGrfcon;FID(a:40);OP(a:1);loc_name(a:80);fold_id(p);rX:SIZEROW(i);rX:0(r);rX:1(r);rX:2(r);rY:SIZEROW(i);rY:0(r);rY:1(r);rY:2(r);iDatConNr(i)
  99;C;GCO_1;54;2;153.125;153.125;;2;89.6875;91.875;;0
  100;C;GCO_2;54;2;153.125;153.125;;2;89.6875;87.5;;1
  101;C;GCO_1;55;2;153.125;153.125;;2;85.3125;87.5;;0
  102;C;GCO_2;55;2;153.125;153.125;;2;85.3125;83.125;;1
  103;C;GCO_1;56;2;153.125;153.125;;2;80.9375;83.125;;0
  104;C;GCO_2;56;2;153.125;153.125;;2;80.9375;78.75;;1
  105;C;GCO_1;57;2;153.125;153.125;;2;72.1875;78.75;;0
  106;C;GCO_2;57;2;153.125;153.125;;2;72.1875;65.625;;1
  107;C;GCO_1;58;2;153.125;153.125;;2;94.0625;96.25;;0
  108;C;GCO_2;58;2;153.125;153.125;;2;94.0625;91.875;;1
  109;C;GCO_1;62;2;140;140;;2;170.625;183.75;;0
  110;C;GCO_2;62;2;140;140;;2;161.875;153.125;;1
  111;C;GCO_1;63;2;153.125;153.125;;2;170.625;183.75;;0
  112;C;GCO_2;63;2;153.125;153.125;;2;161.875;153.125;;1
  113;C;GCO_1;65;2;166.25;166.25;;2;170.625;183.75;;0
  114;C;GCO_2;65;2;166.25;166.25;;2;161.875;153.125;;1
  115;C;GCO_1;66;3;227.5;210;210;3;105;105;118.125;0
  116;C;GCO_2;66;3;236.25;253.75;253.75;3;105;105;118.125;1
  117;C;GCO_1;67;3;181.5625;161.875;161.875;3;105;105;118.125;0
  118;C;GCO_2;67;3;181.5625;201.25;201.25;3;105;105;118.125;1
  119;C;GCO_1;68;3;124.6875;144.375;144.375;3;105;105;118.125;0
  120;C;GCO_2;68;3;124.6875;105;105;3;105;105;118.125;1
  121;C;GCO_1;69;3;65.625;87.5;87.5;3;105;105;118.125;0
  122;C;GCO_2;69;3;65.625;43.75;43.75;3;105;105;118.125;1
  123;C;GCO_1;70;2;153.125;153.125;;2;107.1875;118.125;;0
  124;C;GCO_2;70;2;153.125;153.125;;2;107.1875;96.25;;1
  125;C;GCO_1;72;2;153.125;153.125;;2;135.625;153.125;;0
  126;C;GCO_2;72;2;153.125;153.125;;2;135.625;118.125;;1
  127;C;GCO_1;73;2;153.125;153.125;;2;41.5625;65.625;;0
  128;C;GCO_2;73;2;153.125;153.125;;2;41.5625;17.5;;1
  129;C;GCO_1;74;3;126.875;144.375;144.375;3;52.5;52.5;65.625;0
  130;C;GCO_2;74;3;126.875;109.375;109.375;3;52.5;52.5;65.625;1
  131;C;GCO_1;75;3;65.625;83.125;83.125;3;52.5;52.5;65.625;0
  132;C;GCO_2;75;3;65.625;48.125;48.125;3;52.5;52.5;65.625;1
  133;C;GCO_1;76;2;153.125;153.125;;2;192.5;183.75;;0
  134;C;GCO_1;78;2;39.375;39.375;;2;48.125;65.625;;0
  135;C;GCO_1;79;2;262.5;262.5;;2;100.625;118.125;;0
  136;C;GCO_1;80;2;96.25;96.25;;2;100.625;118.125;;0
  137;C;GCO_1;81;2;35;35;;2;100.625;118.125;;0
  138;C;GCO_1;82;2;161.875;161.875;;2;48.125;65.625;;0
  139;C;GCO_1;89;2;157.5;153.125;;2;87.5;87.5;;0
  140;C;GCO_1;90;2;157.5;153.125;;2;91.875;91.875;;0
  141;C;GCO_1;92;2;157.5;153.125;;2;96.25;96.25;;0
  142;C;GCO_1;93;2;157.5;153.125;;2;83.125;83.125;;0
  143;C;GCO_1;94;2;157.5;153.125;;2;78.75;78.75;;0
  144;C;GCO_1;95;2;30.625;30.625;;2;52.5;65.625;;0


$$IntGrfnet;FID(a:40);OP(a:1);loc_name(a:80);fold_id(p);snap_on(i);ortho_on(i);pDataFolder(p)
  145;C;Grid;;1;1;29


$$StaCubic;FID(a:40);OP(a:1);loc_name(a:80);fold_id(p);obj_bus(i);obj_id(p);it2p1(i);it2p2(i);it2p3(i);cPhInfo(a)
  146;C;Cub_1;31;1;18;0;1;2;SPN
  147;C;Cub_2;31;0;24;0;1;2;SP
  148;C;Cub_3;31;0;30;0;1;2;SP
  149;C;Cub_1;32;0;6;0;1;2;abcN
  150;C;Cub_2;32;0;7;2;1;2;cbN
  151;C;Cub_3;32;0;8;0;1;2;abcN
  152;C;Cub_4;32;1;15;0;1;2;abcN
  153;C;Cub_1;33;0;50;0;1;2;abcN
  154;C;Cub_2;33;1;6;0;1;2;abcN
  155;C;Cub_1;34;1;50;0;1;2;abcN
  156;C;Cub_2;34;0;25;0;1;2;abcN
  157;C;Cub_1;35;1;7;0;1;2;DP1DP2N
  158;C;Cub_2;35;0;14;0;1;2;DP1DP2N
  159;C;Cub_3;35;0;26;1;1;2;DP2N
  160;C;Cub_1;36;1;14;0;1;2;DP1DP2N
  161;C;Cub_2;36;0;27;0;1;2;DP1DP2
  162;C;Cub_1;37;0;47;0;3;2;aN
  163;C;Cub_2;37;0;48;1;3;2;bN
  164;C;Cub_3;37;0;49;2;3;2;cN
  165;C;Cub_4;37;0;51;0;1;2;abcN
  166;C;Cub_1;38;1;13;0;1;2;abcN
  167;C;Cub_2;38;0;16;0;1;2;abcN
  168;C;Cub_3;38;0;17;0;2;2;acN
  169;C;Cub_5;38;0;28;0;1;2;abc
  170;C;Cub_1;39;1;16;0;1;2;abcN
  171;C;Cub_3;40;1;17;0;1;2;DP1DP2N
  172;C;Cub_4;40;0;18;1;1;2;DP2N
  173;C;Cub_1;41;1;47;0;3;2;aN
  174;C;Cub_2;41;1;48;1;3;2;bN
  175;C;Cub_3;41;1;49;2;3;2;cN
  176;C;Cub_4;41;0;15;0;1;2;abcN
  177;C;Cub_0;42;0;10;0;1;2;abcN
  178;C;Cub_1;42;1;9;0;1;2;abcN
  179;C;Cub_2;42;0;20;0;1;2;abcN
  180;C;Cub_0;43;0;11;0;1;2;abcN
  181;C;Cub_1;43;1;10;0;1;2;abcN
  182;C;Cub_2;43;0;21;0;1;2;abcN
  183;C;Cub_0;44;0;12;0;1;2;abcN
  184;C;Cub_1;44;1;11;0;1;2;abcN
  185;C;Cub_2;44;0;22;0;1;2;abcN
  186;C;Cub_0;45;0;13;0;1;2;abcN
  187;C;Cub_1;45;1;12;0;1;2;abcN
  188;C;Cub_2;45;0;23;0;1;2;abcN
  189;C;Cub_0;46;0;9;0;1;2;abcN
  190;C;Cub_1;46;1;8;0;1;2;abcN
  191;C;Cub_2;46;0;19;0;1;2;abcN


$$StaSwitch;FID(a:40);OP(a:1);loc_name(a:80);fold_id(p);on_off(i);typ_id(p);aUsage(a)
  192;C;Switch;146;1;;cbk
  193;C;Switch;147;1;;cbk
  194;C;Switch;148;1;;cbk
  195;C;Switch;149;1;;cbk
  196;C;Switch;150;1;;cbk
  197;C;Switch;151;1;;cbk
  198;C;Switch;152;1;;cbk
  199;C;Switch;153;1;;cbk
  200;C;Switch;154;1;;cbk
  201;C;Switch;155;1;;cbk
  202;C;Switch;156;1;;cbk
  203;C;Switch;157;1;;cbk
  204;C;Switch;158;1;;cbk
  205;C;Switch;159;1;;cbk
  206;C;Switch;160;1;;cbk
  207;C;Switch;161;1;;cbk
  208;C;Switch;162;1;;cbk
  209;C;Switch;163;1;;cbk
  210;C;Switch;164;1;;cbk
  211;C;Switch;165;1;;cbk
  212;C;Switch;166;1;;cbk
  213;C;Switch;167;1;;cbk
  214;C;Switch;168;1;;cbk
  215;C;Switch;169;1;;cbk
  216;C;Switch;170;1;;cbk
  217;C;Switch;171;1;;cbk
  218;C;Switch;172;1;;cbk
  219;C;Switch;173;1;;cbk
  220;C;Switch;174;1;;cbk
  221;C;Switch;175;1;;cbk
  222;C;Switch;176;1;;cbk


$$TypBar;FID(a:40);OP(a:1);loc_name(a:80);fold_id(p);uknom(r);Ithlim(r);Tkr(r);Iplim(r)
  223;C;Busbar0.48kV;;0.48;0;1;0
  224;C;Busbar4.16kV;;4.16;0;1;0


$$TypCon;FID(a:40);OP(a:1);loc_name(a:80);fold_id(p);sline(r);ncsub(i);dsubc(r);rpha(r);diaco(r);erpha(r);diatub(r);iskin(i);tmax(r);uline(r);iopt_inp(a:6);alpha(r);rpha_tmax(r);mlei(a:20);iModel(i)
  225;C;556.5 ACSR;;0.73;1;0.1;0.115512;23.5458;9.54024;16;0;80;4.16;tmx;0;0.115512;Al;0
  226;C;n1 ACSR;;0.23;1;0.1;0.695935;10.1092;1.359408;16;0;80;4.16;tmx;0;0.695935;As;0
  227;C;n4 ACSR;;0.34;1;0.1;0.367851;14.3002;2.481072;16;0;80;4.16;tmx;0;0.367852;Al;0


$$TypLod;FID(a:40);OP(a:1);loc_name(a:80);fold_id(p);systp(i);phtech(i);aP(r);bP(r);kpu0(r);kpu1(r);kpu(r);aQ(r);bQ(r);kqu0(r);kqu1(r);kqu(r)
  228;C;LodDcPQ;;0;0;1;0;0;1;2;1;0;0;1;2
  229;C;LodPNcI;;0;9;0;1;0;1;2;0;1;0;1;2
  230;C;LodPNcPQ;;0;8;1;0;0;1;2;1;0;0;1;2
  231;C;LodPPcZ;;0;7;0;0;0;1;2;0;0;0;1;2
  232;C;LodYNcPQ;;0;3;1;0;0;1;2;1;0;0;1;2


$$TypTow;FID(a:40);OP(a:1);loc_name(a:80);fold_id(p);frnom(r);nlear(i);nlcir(i);gearth(r);i_mode(i);pcond_e:SIZEROW(i);nphas:SIZEROW(i);nphas:0(r);nphas:1(r);ktrto:SIZEROW(i);ktrto:0(r);ktrto:1(r);pcond_c:SIZEROW(i);pcond_c:0(p);pcond_c:1(p);xy_e:SIZEROW(i);xy_e:SIZECOL(i);xy_c:SIZEROW(i);xy_c:SIZECOL(i);xy_c:0:0(r);xy_c:0:1(r);xy_c:0:2(r);xy_c:0:3(r);xy_c:0:4(r);xy_c:0:5(r);xy_c:1:0(r);xy_c:1:1(r);xy_c:1:2(r);xy_c:1:3(r);xy_c:1:4(r);xy_c:1:5(r);R_c0:SIZEROW(i);R_c0:SIZECOL(i);R_c0:0:0(r);R_c0:0:1(r);R_c0:1:0(r);R_c0:1:1(r);X_c0:SIZEROW(i);X_c0:SIZECOL(i);X_c0:0:0(r);X_c0:0:1(r);X_c0:1:0(r);X_c0:1:1(r);R_c1:SIZEROW(i);R_c1:SIZECOL(i);R_c1:0:0(r);R_c1:0:1(r);R_c1:1:0(r);R_c1:1:1(r);X_c1:SIZEROW(i);X_c1:SIZECOL(i);X_c1:0:0(r);X_c1:0:1(r);X_c1:1:0(r);X_c1:1:1(r);B_c0:SIZEROW(i);B_c0:SIZECOL(i);B_c0:0:0(r);B_c0:0:1(r);B_c0:1:0(r);B_c0:1:1(r);B_c1:SIZEROW(i);B_c1:SIZECOL(i);B_c1:0:0(r);B_c1:0:1(r);B_c1:1:0(r);B_c1:1:1(r);G_c0:SIZEROW(i);G_c0:SIZECOL(i);G_c0:0:0(r);G_c0:0:1(r);G_c0:1:0(r);G_c0:1:1(r);G_c1:SIZEROW(i);G_c1:SIZECOL(i);G_c1:0:0(r);G_c1:0:1(r);G_c1:1:0(r);G_c1:1:1(r)
  233;C;LineConfig601;;60;0;2;100;0;0;2;3;1;2;0;0;2;225;227;0;0;2;6;-0.3048;-1.0668;1.0668;8.5344;8.5344;8.5344;0.1523999951232;0;0;7.31519976591361;0;0;2;2;0.28938588009358;0;0;0;2;2;1.84028590684138;0;0;0;2;2;0.11551324004023;0;0;0.42598363231759;2;2;0.37092625047155;0;0;0.96207526739358;2;2;2.05281997027578;0;0;0;2;2;4.53810766818396;0;0;3.34042442918459;2;2;0;0;0;0;2;2;1.11022302462516e-16;0;0;0
  234;C;LineConfig602;;60;0;2;100;0;0;2;3;1;2;0;0;2;227;227;0;0;2;6;-0.3048;1.0668;-1.0668;8.5344;8.5344;8.5344;0.1523999951232;0;0;7.31519976591361;0;0;2;2;0.54172473655225;0;0;0;2;2;1.94183434292389;0;0;0;2;2;0.36785209649889;0;0;0.42598363231759;2;2;0.47247468655407;0;0;0.96207526739358;2;2;1.95681658172144;0;0;0;2;2;4.09021015609093;0;0;3.31282137919026;2;2;0;0;0;0;2;2;2.77555756156289e-17;0;0;0
  235;C;LineConfig603-604;;60;0;2;100;0;0;2;2;1;2;0;0;2;226;226;0;0;2;6;-1.0668;1.0668;0;8.5344;8.5344;0;0.1523999951232;0;0;7.31519976591361;0;0;2;2;0.81185083721291;0;0;0;2;2;1.46042892895006;0;0;0;2;2;0.69593637355792;0;0;0.75406759451966;2;2;0.55481892785723;0;0;1.00743795711989;2;2;2.35530659170663;0;0;0;2;2;3.47439096275939;0;0;3.01809354455243;2;2;0;0;0;0;2;2;0;0;0;0
  236;C;LineConfig605;;60;0;2;100;0;0;2;1;1;2;0;0;2;226;226;0;0;2;6;0;0;0;8.8392;0;0;0.1523999951232;0;0;7.31519976591361;0;0;2;2;0;0;0;0;2;2;0;0;0;0;2;2;0.75385037546251;0.05802291939466;0.05802291939466;0.75406759451966;2;2;1.00767035817922;0.47772943405107;0.47772943405107;1.00743795711989;2;2;0;0;0;0;2;2;2.8100926148869;-0.83060209656515;-0.83060209656515;2.87681161082885;2;2;0;0;0;0;2;2;0;0;0;0


$$TypTr2;FID(a:40);OP(a:1);loc_name(a:80);fold_id(p);nt2ph(i);strn(r);frnom(r);utrn_h(r);utrn_l(r);uktr(r);pcutr(r);uk0tr(r);ur0tr(r);tr2cn_h(a:4);tr2cn_l(a:4);nt2ag(r);curmg(r);pfe(r);zx0hl_n(r);itapch(i);tap_side(i);dutap(r);phitr(r);nntap0(i);ntpmn(i);ntpmx(i);manuf(a:40)
  237;C;AutoTRF1ph;;2;1.667;60;2.401777;2.401777;1;1;3;0;D;D;0;0;0;100;0;1;0.625;0;0;-16;16;
  238;C;XFM-1Typ;;3;0.5;60;4.16;0.48;2.282542;5.5;2.282542;1.1;YN;YN;0;0;0;100;0;0;0;0;0;0;0;

